/*--------------------------------*- C++ -*----------------------------------*\
  =========                 |
  \\      /  F ield         | OpenFOAM: The Open Source CFD Toolbox
   \\    /   O peration     | Website:  https://openfoam.org
    \\  /    A nd           | Version:  7
     \\/     M anipulation  |
\*---------------------------------------------------------------------------*/
FoamFile
{
    version     2.0;
    format      ascii;
    class       dictionary;
    location    "system/air";
    object      fvSolution;
}
// * * * * * * * * * * * * * * * * * * * * * * * * * * * * * * * * * * * * * //

solvers
{
    "p_rgh.*"
    {
        solver           GAMG;
        tolerance        1e-7;
        relTol           0.01;
        smoother         DIC;
        maxIter          100;
    }

    "(U|h|e|k|epsilon).*"
    {
        solver           PBiCGStab;
        preconditioner   DILU;
        tolerance        1e-6;
        relTol           0.1;
    }
}

PIMPLE
{
    nNonOrthogonalCorrectors 0;
    
     residualControl 
    {
	U 1;
    }
}

relaxationFactors
{
    fields
    {
        rho         1;
        p_rgh       0.7;
    }

    equations
    {
    	// All where 0.3
        U           0.4;
        "(h|e)"     1;
        k           0.4;
        epsilon     0.4;
    }
}

// ************************************************************************* //
