/*--------------------------------*- C++ -*----------------------------------*\
  =========                 |
  \\      /  F ield         | OpenFOAM: The Open Source CFD Toolbox
   \\    /   O peration     | Website:  https://openfoam.org
    \\  /    A nd           | Version:  7
     \\/     M anipulation  |
\*---------------------------------------------------------------------------*/
FoamFile
{
    version     2.0;
    format      ascii;
    class       polyBoundaryMesh;
    location    "constant/solid/polyMesh";
    object      boundary;
}
// * * * * * * * * * * * * * * * * * * * * * * * * * * * * * * * * * * * * * //

3
(
    top
    {
        type            empty;
        inGroups        List<word> 1(empty);
        nFaces          6240;
        startFace       10748;
    }
    bottom
    {
        type            empty;
        inGroups        List<word> 1(empty);
        nFaces          6240;
        startFace       16988;
    }
    solid_to_fluid
    {
        type            mappedWall;
        inGroups        List<word> 1(wall);
        nFaces          3464;
        startFace       23228;
        sampleMode      nearestPatchFace;
        sampleRegion    fluid;
        samplePatch     fluid_to_solid;
    }
)

// ************************************************************************* //
