/*--------------------------------*- C++ -*----------------------------------*\
  =========                 |
  \\      /  F ield         | OpenFOAM: The Open Source CFD Toolbox
   \\    /   O peration     | Website:  https://openfoam.org
    \\  /    A nd           | Version:  7
     \\/     M anipulation  |
\*---------------------------------------------------------------------------*/
FoamFile
{
    version     2.0;
    format      ascii;
    class       polyBoundaryMesh;
    location    "constant/fluid/polyMesh";
    object      boundary;
}
// * * * * * * * * * * * * * * * * * * * * * * * * * * * * * * * * * * * * * //

7
(
    inlet
    {
        type            patch;
        nFaces          132;
        startFace       24580;
    }
    outlet
    {
        type            patch;
        nFaces          132;
        startFace       24712;
    }
    top
    {
        type            empty;
        inGroups        List<word> 1(empty);
        nFaces          13296;
        startFace       24844;
    }
    bottom
    {
        type            empty;
        inGroups        List<word> 1(empty);
        nFaces          13296;
        startFace       38140;
    }
    right
    {
        type            wall;
        inGroups        List<word> 1(wall);
        nFaces          148;
        startFace       51436;
    }
    left
    {
        type            wall;
        inGroups        List<word> 1(wall);
        nFaces          148;
        startFace       51584;
    }
    fluid_to_solid
    {
        type            mappedWall;
        inGroups        List<word> 1(wall);
        nFaces          3464;
        startFace       51732;
        sampleMode      nearestPatchFace;
        sampleRegion    solid;
        samplePatch     solid_to_fluid;
    }
)

// ************************************************************************* //
