/*--------------------------------*- C++ -*----------------------------------*\
  =========                 |
  \\      /  F ield         | OpenFOAM: The Open Source CFD Toolbox
   \\    /   O peration     | Website:  https://openfoam.org
    \\  /    A nd           | Version:  7
     \\/     M anipulation  |
\*---------------------------------------------------------------------------*/
FoamFile
{
    version     2.0;
    format      ascii;
    class       polyBoundaryMesh;
    location    "constant/polyMesh";
    object      boundary;
}
// * * * * * * * * * * * * * * * * * * * * * * * * * * * * * * * * * * * * * //

6
(
    inlet
    {
        type            patch;
        nFaces          132;
        startFace       38792;
    }
    outlet
    {
        type            patch;
        nFaces          132;
        startFace       38924;
    }
    top
    {
        type            empty;
        inGroups        List<word> 1(empty);
        nFaces          19536;
        startFace       39056;
    }
    bottom
    {
        type            empty;
        inGroups        List<word> 1(empty);
        nFaces          19536;
        startFace       58592;
    }
    right
    {
        type            wall;
        inGroups        List<word> 1(wall);
        nFaces          148;
        startFace       78128;
    }
    left
    {
        type            wall;
        inGroups        List<word> 1(wall);
        nFaces          148;
        startFace       78276;
    }
)

// ************************************************************************* //
